
     RDKit          3D

 18 20  0  0  0  0  0  0  0  0999 V2000
   26.9680   28.4050   33.5870 N   0  0  0  0  0  0  0  0  0  0  0  0
   28.1040   27.8290   33.0380 C   0  0  0  0  0  0  0  0  0  0  0  0
   28.0860   27.3520   31.7820 N   0  0  0  0  0  0  0  0  0  0  0  0
   29.1600   26.7960   31.2370 C   0  0  0  0  0  0  0  0  0  0  0  0
   30.2930   26.6730   31.9130 N   0  0  0  0  0  0  0  0  0  0  0  0
   30.4150   27.1100   33.1760 C   0  0  0  0  0  0  0  0  0  0  0  0
   29.3070   27.7180   33.7920 C   0  0  0  0  0  0  0  0  0  0  0  0
   29.6960   28.0620   35.0530 N   0  0  0  0  0  0  0  0  0  0  0  0
   30.9330   27.7240   35.2400 C   0  0  0  0  0  0  0  0  0  0  0  0
   31.4270   27.1240   34.1150 N   0  0  0  0  0  0  0  0  0  0  0  0
   32.8010   26.6000   33.9210 C   0  0  2  0  0  0  0  0  0  0  0  0
   33.5220   26.3290   35.1600 O   0  0  0  0  0  0  0  0  0  0  0  0
   34.5950   27.3050   35.3090 C   0  0  2  0  0  0  0  0  0  0  0  0
   34.7250   27.8280   36.7500 C   0  0  0  0  0  0  0  0  0  0  0  0
   34.2690   28.4300   34.2980 C   0  0  1  0  0  0  0  0  0  0  0  0
   35.4360   29.1460   33.8830 O   0  0  0  0  0  0  0  0  0  0  0  0
   33.6620   27.6150   33.1360 C   0  0  1  0  0  0  0  0  0  0  0  0
   34.6660   26.9300   32.3740 O   0  0  0  0  0  0  0  0  0  0  0  0
  1  2  1  0
  2  3  4  0
  3  4  4  0
  4  5  4  0
  5  6  4  0
  6  7  4  0
  7  8  4  0
  8  9  4  0
  9 10  4  0
 11 10  1  1
 11 12  1  0
 12 13  1  0
 13 14  1  1
 13 15  1  0
 15 16  1  6
 15 17  1  0
 17 18  1  1
  7  2  4  0
 17 11  1  0
 10  6  4  0
M  END
>  <anchor_id>  (1) 
13

$$$$
